Version 4.1
SHEET 1 1536 856
WIRE -112 -432 -112 -480
WIRE -112 -320 -112 -352
WIRE -112 -320 -192 -320
WIRE -192 -288 -192 -320
WIRE -112 -288 -112 -320
WIRE -112 -160 -112 -208
WIRE 112 0 -1648 0
WIRE 1232 0 1136 0
WIRE 1296 0 1232 0
WIRE 1488 0 1376 0
WIRE 1136 64 1136 0
WIRE 800 144 736 144
WIRE 1024 144 880 144
WIRE -1648 160 -1648 0
WIRE -320 192 -416 192
WIRE -192 192 -240 192
WIRE -80 192 -112 192
WIRE -16 192 -80 192
WIRE 352 192 -16 192
WIRE 1488 192 1488 0
WIRE 1488 192 1424 192
WIRE 1232 208 1232 0
WIRE 1296 208 1232 208
WIRE 1504 224 1424 224
WIRE 1024 240 1024 144
WIRE 1024 240 928 240
WIRE 1104 240 1024 240
WIRE 1232 240 1184 240
WIRE 1296 240 1232 240
WIRE 1504 240 1504 224
WIRE -80 256 -80 192
WIRE -16 256 -16 192
WIRE 736 256 736 144
WIRE 736 256 704 256
WIRE 800 256 736 256
WIRE -416 272 -576 272
WIRE -1648 288 -1648 240
WIRE -1648 288 -1904 288
WIRE 112 288 112 0
WIRE 160 288 112 288
WIRE 384 288 288 288
WIRE 528 288 448 288
WIRE 800 288 528 288
WIRE -1648 320 -1648 288
WIRE 160 320 112 320
WIRE -1024 336 -1264 336
WIRE -944 336 -1024 336
WIRE -736 336 -864 336
WIRE -704 336 -736 336
WIRE -576 336 -576 272
WIRE -576 336 -624 336
WIRE 528 336 528 288
WIRE -320 352 -416 352
WIRE -192 352 -240 352
WIRE -80 352 -80 336
WIRE -80 352 -112 352
WIRE -16 352 -16 336
WIRE -16 352 -80 352
WIRE 80 352 -16 352
WIRE 352 352 352 192
WIRE 352 352 288 352
WIRE 1040 352 1024 352
WIRE 1136 352 1120 352
WIRE 1232 352 1232 240
WIRE 1232 352 1216 352
WIRE 352 384 288 384
WIRE 1232 400 1232 352
WIRE -1024 432 -1024 336
WIRE -944 432 -1024 432
WIRE -736 448 -736 336
WIRE -736 448 -816 448
WIRE 80 464 80 352
WIRE 352 464 352 384
WIRE 352 464 80 464
WIRE 528 464 528 416
WIRE -736 480 -816 480
WIRE -1904 496 -1904 368
WIRE -1808 496 -1904 496
WIRE -1264 496 -1264 336
WIRE -1264 496 -1808 496
WIRE 1232 512 1232 480
WIRE -736 528 -736 480
WIRE -1648 608 -1648 400
WIRE -1552 608 -1648 608
WIRE 112 608 112 320
WIRE 112 608 -1552 608
WIRE 528 608 528 544
WIRE 1232 624 1232 592
FLAG -736 528 0
FLAG -192 -288 0
FLAG -112 -160 nv-
FLAG -112 -480 nv+
FLAG 160 352 nv+
FLAG 160 384 nv-
FLAG 528 608 0
FLAG 928 272 nv-
FLAG -944 464 nv-
FLAG 928 304 nv+
FLAG -944 496 nv+
FLAG 624 256 0
FLAG 288 320 0
FLAG 1136 144 0
FLAG 1424 256 nv+
FLAG 1504 240 0
FLAG 1488 192 nOUT
FLAG 1024 352 nv+
FLAG 1232 624 0
FLAG -1648 0 nvin+
FLAG -1552 608 nvin-
FLAG -1808 496 nRLD
SYMBOL res -32 240 R0
SYMATTR InstName R1
SYMATTR Value 100k
SYMBOL res -848 320 R90
WINDOW 0 0 56 VBottom 2
WINDOW 3 32 56 VTop 2
SYMATTR InstName R4
SYMATTR Value 15k
SYMBOL voltage -112 -448 R0
WINDOW 123 0 0 Left 0
WINDOW 39 0 0 Left 0
SYMATTR InstName V2
SYMATTR Value 3
SYMBOL voltage -112 -304 R0
WINDOW 123 0 0 Left 0
WINDOW 39 0 0 Left 0
SYMATTR InstName V3
SYMATTR Value 3
SYMBOL cap 448 272 R90
WINDOW 0 0 32 VBottom 2
WINDOW 3 32 32 VTop 2
SYMATTR InstName C2
SYMATTR Value 100µ
SYMBOL INA333 224 336 R0
SYMATTR InstName U4
SYMBOL OPAx333 -880 464 R180
SYMATTR InstName U1
SYMBOL OPAx333 864 272 M180
SYMATTR InstName U5
SYMBOL res 720 240 R90
WINDOW 0 0 56 VBottom 2
WINDOW 3 32 56 VTop 2
SYMATTR InstName R7
SYMATTR Value 1k
SYMBOL res 896 128 R90
WINDOW 0 0 56 VBottom 2
WINDOW 3 32 56 VTop 2
SYMATTR InstName R8
SYMATTR Value 100k
SYMBOL voltage -1904 272 R0
WINDOW 123 24 124 Left 2
WINDOW 39 0 0 Left 0
SYMATTR Value2 AC 1m
SYMATTR InstName V4
SYMATTR Value SINE(0 .5m 100)
SYMBOL voltage -1648 144 R0
WINDOW 123 24 124 Left 2
WINDOW 39 0 0 Left 0
SYMATTR Value2 AC 1m
SYMATTR InstName V5
SYMATTR Value SINE(0 1m 1)
SYMBOL voltage -1648 304 R0
WINDOW 0 24 96 Left 2
WINDOW 3 24 16 Left 2
WINDOW 123 24 44 Left 2
WINDOW 39 0 0 Left 0
SYMATTR InstName V6
SYMATTR Value SINE(0 1m 1)
SYMATTR Value2 AC 1m
SYMBOL res -608 320 R90
WINDOW 0 0 56 VBottom 2
WINDOW 3 32 56 VTop 2
SYMATTR InstName R5
SYMATTR Value 15k
SYMBOL OPAx333 1360 224 M180
SYMATTR InstName U2
SYMBOL res 1200 224 R90
WINDOW 0 0 56 VBottom 2
WINDOW 3 32 56 VTop 2
SYMATTR InstName R9
SYMATTR Value 100k
SYMBOL res 1232 336 R90
WINDOW 0 0 56 VBottom 2
WINDOW 3 32 56 VTop 2
SYMATTR InstName R10
SYMATTR Value 100k
SYMBOL res 1392 -16 R90
WINDOW 0 0 56 VBottom 2
WINDOW 3 32 56 VTop 2
SYMATTR InstName R11
SYMATTR Value 100k
SYMBOL res 1120 48 R0
SYMATTR InstName R12
SYMATTR Value 100k
SYMBOL res 1216 384 R0
SYMATTR InstName R13
SYMATTR Value 100k
SYMBOL res -96 240 R0
SYMATTR InstName R2
SYMATTR Value 100k
SYMBOL res -96 176 R90
WINDOW 0 0 56 VBottom 2
WINDOW 3 32 56 VTop 2
SYMATTR InstName R3
SYMATTR Value 10k
SYMBOL res -96 336 R90
WINDOW 0 0 56 VBottom 2
WINDOW 3 32 56 VTop 2
SYMATTR InstName R14
SYMATTR Value 10k
SYMBOL res -224 336 R90
WINDOW 0 0 56 VBottom 2
WINDOW 3 32 56 VTop 2
SYMATTR InstName R15
SYMATTR Value 1k
SYMBOL res -224 176 R90
WINDOW 0 0 56 VBottom 2
WINDOW 3 32 56 VTop 2
SYMATTR InstName R16
SYMATTR Value 1k
SYMBOL res -400 288 R180
WINDOW 0 36 76 Left 2
WINDOW 3 36 40 Left 2
SYMATTR InstName R17
SYMATTR Value 1.5k
SYMBOL res -400 368 R180
WINDOW 0 36 76 Left 2
WINDOW 3 36 40 Left 2
SYMATTR InstName R18
SYMATTR Value 1.5k
SYMBOL res 512 320 R0
SYMATTR InstName R6
SYMATTR Value 57k
SYMBOL res 512 448 R0
SYMATTR InstName R19
SYMATTR Value 5.7k
SYMBOL res 1136 336 R90
WINDOW 0 0 56 VBottom 2
WINDOW 3 32 56 VTop 2
SYMATTR InstName R20
SYMATTR Value 100k
SYMBOL res 1216 496 R0
SYMATTR InstName R21
SYMATTR Value 100k
TEXT -672 -192 Left 2 !.tran 0 5 0 1m
TEXT -752 -320 Left 2 ;.ac dec 40 .5 10
