Version 4.1
SHEET 1 1028 856
WIRE -112 -432 -112 -480
WIRE -112 -320 -112 -352
WIRE -112 -320 -192 -320
WIRE -192 -288 -192 -320
WIRE -112 -288 -112 -320
WIRE -112 -160 -112 -208
WIRE 112 0 -1648 0
WIRE 800 144 736 144
WIRE 1024 144 880 144
WIRE -1648 160 -1648 0
WIRE -16 192 -208 192
WIRE 352 192 -16 192
WIRE 1024 240 1024 144
WIRE 1024 240 928 240
WIRE -16 256 -16 192
WIRE 736 256 736 144
WIRE 736 256 704 256
WIRE 800 256 736 256
WIRE -208 272 -256 272
WIRE -1648 288 -1648 240
WIRE -1648 288 -1904 288
WIRE 112 288 112 0
WIRE 160 288 112 288
WIRE 384 288 288 288
WIRE 528 288 448 288
WIRE 800 288 528 288
WIRE -1648 320 -1648 288
WIRE 160 320 112 320
WIRE -736 336 -1264 336
WIRE -656 336 -736 336
WIRE -448 336 -576 336
WIRE -416 336 -448 336
WIRE -256 336 -256 272
WIRE -256 336 -336 336
WIRE 528 336 528 288
WIRE -16 352 -16 336
WIRE -16 352 -208 352
WIRE 80 352 -16 352
WIRE 352 352 352 192
WIRE 352 352 288 352
WIRE 352 384 288 384
WIRE -736 432 -736 336
WIRE -656 432 -736 432
WIRE -448 448 -448 336
WIRE -448 448 -528 448
WIRE 80 464 80 352
WIRE 352 464 352 384
WIRE 352 464 80 464
WIRE -448 480 -528 480
WIRE 528 480 528 416
WIRE -1904 496 -1904 368
WIRE -1264 496 -1264 336
WIRE -1264 496 -1904 496
WIRE -448 528 -448 480
WIRE -1648 608 -1648 400
WIRE 112 608 112 320
WIRE 112 608 -1648 608
FLAG -448 528 0
FLAG -192 -288 0
FLAG -112 -160 nv-
FLAG -112 -480 nv+
FLAG 160 352 nv+
FLAG 160 384 nv-
FLAG 528 480 0
FLAG 928 272 nv-
FLAG -656 464 nv-
FLAG 928 304 nv+
FLAG -656 496 nv+
FLAG 624 256 0
FLAG 288 320 0
SYMBOL res -32 240 R0
SYMATTR InstName R1
SYMATTR Value 50k
SYMBOL res -224 176 R0
SYMATTR InstName R2
SYMATTR Value 12.5k
SYMBOL res -224 256 R0
SYMATTR InstName R3
SYMATTR Value 12.5k
SYMBOL res -560 320 R90
WINDOW 0 0 56 VBottom 2
WINDOW 3 32 56 VTop 2
SYMATTR InstName R4
SYMATTR Value 15k
SYMBOL voltage -112 -448 R0
WINDOW 123 0 0 Left 0
WINDOW 39 0 0 Left 0
SYMATTR InstName V2
SYMATTR Value 3.3
SYMBOL voltage -112 -304 R0
WINDOW 123 0 0 Left 0
WINDOW 39 0 0 Left 0
SYMATTR InstName V3
SYMATTR Value 3.3
SYMBOL cap 448 272 R90
WINDOW 0 0 32 VBottom 2
WINDOW 3 32 32 VTop 2
SYMATTR InstName C2
SYMATTR Value 1µ
SYMBOL res 512 320 R0
SYMATTR InstName R6
SYMATTR Value 5.2Meg
SYMBOL INA333 224 336 R0
SYMATTR InstName U4
SYMBOL OPAx333 -592 464 R180
SYMATTR InstName U1
SYMBOL OPAx333 864 272 M180
SYMATTR InstName U5
SYMBOL res 720 240 R90
WINDOW 0 0 56 VBottom 2
WINDOW 3 32 56 VTop 2
SYMATTR InstName R7
SYMATTR Value 1k
SYMBOL res 896 128 R90
WINDOW 0 0 56 VBottom 2
WINDOW 3 32 56 VTop 2
SYMATTR InstName R8
SYMATTR Value 165k
SYMBOL voltage -1904 272 R0
WINDOW 123 0 0 Left 0
WINDOW 39 0 0 Left 0
SYMATTR InstName V4
SYMATTR Value SINE(0 .5m 1meg)
SYMBOL voltage -1648 144 R0
WINDOW 123 0 0 Left 0
WINDOW 39 0 0 Left 0
SYMATTR InstName V5
SYMATTR Value SINE(0 1m 1k)
SYMBOL voltage -1648 304 R0
WINDOW 0 24 96 Left 2
WINDOW 3 24 16 Left 2
WINDOW 123 0 0 Left 0
WINDOW 39 0 0 Left 0
SYMATTR InstName V6
SYMATTR Value SINE(0 1m 1k)
SYMBOL res -320 320 R90
WINDOW 0 0 56 VBottom 2
WINDOW 3 32 56 VTop 2
SYMATTR InstName R5
SYMATTR Value 15k
TEXT -672 -192 Left 2 !.tran 0 5 0 1m
